CC(=O)Nc1ccc(O)cc1
CHcorina  02130121013D 1   1.00000     0.00000     0
CORINA evaluation copy  2.4  150  11.12.1900 (2001-3)
 20 20  0  0  0  0              1 V2000
   -2.3498    1.4449    0.3547 C   0  0  0
   -2.2024   -0.0417    0.5533 C   0  0  0
   -3.0257   -0.6513    1.2028 O   0  0  0
   -1.1558   -0.6938    0.0094 N   0  0  0
   -1.0811   -2.0904    0.0916 C   0  0  0
    0.1556   -2.7161    0.1778 C   0  0  0
    0.2285   -4.0924    0.2593 C   0  0  0
   -0.9336   -4.8504    0.2546 C   0  0  0
   -0.8611   -6.2058    0.3344 O   0  0  0
   -2.1692   -4.2262    0.1689 C   0  0  0
   -2.2437   -2.8492    0.0927 C   0  0  0
   -3.2488    1.7921    0.8639 H   0  0  0
   -1.4789    1.9546    0.7668 H   0  0  0
   -2.4283    1.6631   -0.7104 H   0  0  0
   -0.4543   -0.1961   -0.4391 H   0  0  0
    1.0603   -2.1262    0.1808 H   0  0  0
    1.1903   -4.5791    0.3264 H   0  0  0
   -0.8841   -6.4321    1.2743 H   0  0  0
   -3.0734   -4.8168    0.1656 H   0  0  0
   -3.2059   -2.3632    0.0263 H   0  0  0
  1  2  1  0
  1 12  1  0
  1 13  1  0
  1 14  1  0
  2  3  2  0
  2  4  1  0
  4  5  1  0
  4 15  1  0
  5 11  4  0
  5  6  4  0
  6  7  4  0
  6 16  1  0
  7  8  4  0
  7 17  1  0
  8  9  1  0
  8 10  4  0
  9 18  1  0
 10 11  4  0
 10 19  1  0
 11 20  1  0
M  END
$$$$
