Oc1cccc(O)c1
CHcorina  02130121013D 1   1.00000     0.00000     0
CORINA evaluation copy  2.4  150  11.12.1900 (2001-3)
 14 14  0  0  0  0              1 V2000
   -0.0164    1.3548    0.0095 O   0  0  0
    0.0021   -0.0041    0.0020 C   0  0  0
    0.0058   -0.6920   -1.2034 C   0  0  0
    0.0244   -2.0734   -1.2117 C   0  0  0
    0.0391   -2.7737   -0.0204 C   0  0  0
    0.0355   -2.0905    1.1873 C   0  0  0
    0.0499   -2.7797    2.3585 O   0  0  0
    0.0229   -0.7041    1.1982 C   0  0  0
    0.9055    1.6468    0.0023 H   0  0  0
   -0.0064   -0.1470   -2.1357 H   0  0  0
    0.0273   -2.6069   -2.1507 H   0  0  0
    0.0529   -3.8535   -0.0294 H   0  0  0
    0.9785   -2.9092    2.5952 H   0  0  0
    0.0201   -0.1706    2.1372 H   0  0  0
  1  2  1  0
  1  9  1  0
  2  8  4  0
  2  3  4  0
  3  4  4  0
  3 10  1  0
  4  5  4  0
  4 11  1  0
  5  6  4  0
  5 12  1  0
  6  7  1  0
  6  8  4  0
  7 13  1  0
  8 14  1  0
M  END
$$$$
