Cc1ccc(cc1)S(=O)(=O)NC(=O)NN2CCCCCC2
CHcorina  02130121013D 1   1.00000     0.00000     0
CORINA evaluation copy  2.4  150  11.12.1900 (2001-3)
 42 43  0  0  0  0              1 V2000
   -0.0184    1.5028    0.0103 C   0  0  0
    0.0021   -0.0041    0.0020 C   0  0  0
    0.0057   -0.6888   -1.1991 C   0  0  0
    0.0245   -2.0707   -1.2067 C   0  0  0
    0.0400   -2.7685   -0.0132 C   0  0  0
    0.0373   -2.0840    1.1875 C   0  0  0
    0.0229   -0.7015    1.1951 C   0  0  0
    0.0628   -4.5303   -0.0229 S   0  0  0
   -0.4508   -4.9300    1.2404 O   0  0  0
   -0.4648   -4.9163   -1.2846 O   0  0  0
    1.6492   -5.0049   -0.0342 N   0  0  0
    2.4677   -4.6444    0.9740 C   0  0  0
    2.0413   -3.9707    1.8920 O   0  0  0
    3.7589   -5.0307    0.9648 N   0  0  0
    4.2380   -5.7875   -0.0665 N   0  0  0
    5.2769   -4.9995   -0.7168 C   0  0  0
    6.5499   -4.9763    0.1359 C   0  0  0
    7.5279   -6.0250   -0.4158 C   0  0  0
    7.1290   -7.4119    0.0091 C   0  0  0
    5.6940   -7.7337   -0.4357 C   0  0  0
    4.7189   -7.0333    0.5165 C   0  0  0
    1.0042    1.8801    0.0026 H   0  0  0
   -0.5455    1.8639   -0.8728 H   0  0  0
   -0.5286    1.8543    0.9071 H   0  0  0
   -0.0064   -0.1437   -2.1314 H   0  0  0
    0.0266   -2.6056   -2.1449 H   0  0  0
    0.0491   -2.6290    2.1199 H   0  0  0
    0.0208   -0.1666    2.1334 H   0  0  0
    1.9895   -5.5423   -0.7666 H   0  0  0
    4.3480   -4.7712    1.6904 H   0  0  0
    5.5037   -5.4366   -1.6892 H   0  0  0
    4.9194   -3.9793   -0.8567 H   0  0  0
    7.0063   -3.9878    0.0853 H   0  0  0
    6.3020   -5.2153    1.1701 H   0  0  0
    7.5329   -5.9718   -1.5045 H   0  0  0
    8.5297   -5.8109   -0.0433 H   0  0  0
    7.8126   -8.1336   -0.4380 H   0  0  0
    7.1921   -7.4856    1.0948 H   0  0  0
    5.5362   -7.3726   -1.4519 H   0  0  0
    5.5321   -8.8110   -0.3980 H   0  0  0
    5.2269   -6.8176    1.4564 H   0  0  0
    3.8709   -7.6904    0.7097 H   0  0  0
  1  2  1  0
  1 22  1  0
  1 23  1  0
  1 24  1  0
  2  7  4  0
  2  3  4  0
  3  4  4  0
  3 25  1  0
  4  5  4  0
  4 26  1  0
  5  6  4  0
  5  8  1  0
  6  7  4  0
  6 27  1  0
  7 28  1  0
  8  9  2  0
  8 10  2  0
  8 11  1  0
 11 12  1  0
 11 29  1  0
 12 13  2  0
 12 14  1  0
 14 15  1  0
 14 30  1  0
 15 21  1  0
 15 16  1  0
 16 17  1  0
 16 31  1  0
 16 32  1  0
 17 18  1  0
 17 33  1  0
 17 34  1  0
 18 19  1  0
 18 35  1  0
 18 36  1  0
 19 20  1  0
 19 37  1  0
 19 38  1  0
 20 21  1  0
 20 39  1  0
 20 40  1  0
 21 41  1  0
 21 42  1  0
M  END
$$$$
Cc1ccc(cc1)S(=O)(=O)NC(=O)NN2CCCCCC2
CHcorina  02130121013D 1   1.00000     0.00000     0
CORINA evaluation copy  2.4  150  11.12.1900 (2001-3)
 42 43  0  0  0  0              1 V2000
   -0.0184    1.5028    0.0103 C   0  0  0
    0.0021   -0.0041    0.0020 C   0  0  0
    0.0057   -0.6888   -1.1991 C   0  0  0
    0.0245   -2.0707   -1.2067 C   0  0  0
    0.0400   -2.7685   -0.0132 C   0  0  0
    0.0373   -2.0840    1.1875 C   0  0  0
    0.0229   -0.7015    1.1951 C   0  0  0
    0.0628   -4.5303   -0.0229 S   0  0  0
   -0.4508   -4.9300    1.2404 O   0  0  0
   -0.4648   -4.9163   -1.2846 O   0  0  0
    1.6492   -5.0049   -0.0342 N   0  0  0
    2.4677   -4.6444    0.9740 C   0  0  0
    2.0413   -3.9707    1.8920 O   0  0  0
    3.7589   -5.0307    0.9648 N   0  0  0
    4.2380   -5.7875   -0.0665 N   0  0  0
    5.4038   -5.0738   -0.6084 C   0  0  0
    5.4735   -5.3066   -2.1211 C   0  0  0
    6.1425   -6.6107   -2.4598 C   0  0  0
    5.4062   -7.7771   -1.7802 C   0  0  0
    5.7675   -7.7781   -0.2929 C   0  0  0
    4.7209   -7.0386    0.5190 C   0  0  0
    1.0042    1.8801    0.0026 H   0  0  0
   -0.5455    1.8639   -0.8728 H   0  0  0
   -0.5286    1.8543    0.9071 H   0  0  0
   -0.0064   -0.1437   -2.1314 H   0  0  0
    0.0266   -2.6056   -2.1449 H   0  0  0
    0.0491   -2.6290    2.1199 H   0  0  0
    0.0208   -0.1666    2.1334 H   0  0  0
    1.9895   -5.5423   -0.7666 H   0  0  0
    4.3480   -4.7712    1.6904 H   0  0  0
    5.3041   -4.0071   -0.4078 H   0  0  0
    6.3127   -5.4505   -0.1392 H   0  0  0
    4.4616   -5.3115   -2.5260 H   0  0  0
    6.0330   -4.4914   -2.5799 H   0  0  0
    6.1254   -6.7545   -3.5401 H   0  0  0
    7.1757   -6.5863   -2.1134 H   0  0  0
    4.3300   -7.6485   -1.8960 H   0  0  0
    5.7148   -8.7192   -2.2332 H   0  0  0
    5.8328   -8.8075    0.0594 H   0  0  0
    6.7341   -7.2927   -0.1586 H   0  0  0
    5.1427   -6.8167    1.4992 H   0  0  0
    3.8673   -7.7014    0.6608 H   0  0  0
  1  2  1  0
  1 22  1  0
  1 23  1  0
  1 24  1  0
  2  7  4  0
  2  3  4  0
  3  4  4  0
  3 25  1  0
  4  5  4  0
  4 26  1  0
  5  6  4  0
  5  8  1  0
  6  7  4  0
  6 27  1  0
  7 28  1  0
  8  9  2  0
  8 10  2  0
  8 11  1  0
 11 12  1  0
 11 29  1  0
 12 13  2  0
 12 14  1  0
 14 15  1  0
 14 30  1  0
 15 21  1  0
 15 16  1  0
 16 17  1  0
 16 31  1  0
 16 32  1  0
 17 18  1  0
 17 33  1  0
 17 34  1  0
 18 19  1  0
 18 35  1  0
 18 36  1  0
 19 20  1  0
 19 37  1  0
 19 38  1  0
 20 21  1  0
 20 39  1  0
 20 40  1  0
 21 41  1  0
 21 42  1  0
M  END
$$$$
