Nc1ncc(s1)[N+](=O)[O-]
CHcorina  02130121013D 1   1.00000     0.00000     0
CORINA evaluation copy  2.4  150  11.12.1900 (2001-3)
 12 12  0  0  0  0              2 V2000
   -0.0167    1.3819    0.0096 N   0  0  0
    0.0021   -0.0041    0.0020 C   0  0  0
    1.0396   -0.8190   -0.0064 N   0  0  0
    0.8788   -2.1291   -0.0130 C   0  0  0
   -0.3814   -2.6251   -0.0108 C   0  0  0
   -1.3338   -1.1134    0.0088 S   0  0  0
   -0.8427   -4.0320   -0.0167 N   0  3  0
   -2.0347   -4.2821   -0.0134 O   0  0  0
   -0.0301   -4.9393   -0.0247 O   0  5  0
    0.8166    1.8783    0.0043 H   0  0  0
   -0.8633    1.8554    0.0162 H   0  0  0
    1.7327   -2.7904   -0.0202 H   0  0  0
  1  2  1  0
  1 10  1  0
  1 11  1  0
  2  6  4  0
  2  3  4  0
  3  4  4  0
  4  5  4  0
  4 12  1  0
  5  6  4  0
  5  7  1  0
  7  8  2  0
  7  9  1  0
M  CHG  2   7   1   9  -1
M  END
$$$$
