CCCCCc1cc(O)c2C3C=C(C)CCC3C(C)(C)Oc2c1
CHcorina  02210111253D 1   1.00000     0.00000     0
CORINA evaluation copy  2.4  150  11.12.1900 (2001-3)
 53 55  0  0  0  0              1 V2000
   -0.0187    1.5258    0.0104 C   0  0  0
    0.0021   -0.0041    0.0020 C   0  0  0
   -1.4333   -0.5336    0.0129 C   0  0  0
   -1.4126   -2.0635    0.0045 C   0  0  0
   -2.8479   -2.5931    0.0153 C   0  0  0
   -2.8275   -4.0999    0.0070 C   0  0  0
   -2.8238   -4.7820   -1.1951 C   0  0  0
   -2.7967   -6.1680   -1.1923 C   0  0  0
   -2.7935   -6.8459   -2.3701 O   0  0  0
   -2.7723   -6.8671    0.0059 C   0  0  0
   -2.7018   -8.3635   -0.0159 C   0  0  0
   -3.4983   -9.0185   -1.0937 C   0  0  0
   -4.0536  -10.1829   -0.9108 C   0  0  0
   -4.8135  -10.7756   -2.0694 C   0  0  0
   -3.9988  -10.9815    0.3554 C   0  0  0
   -3.0062  -10.3857    1.3620 C   0  0  0
   -3.1922   -8.8730    1.3465 C   0  0  0
   -2.3818   -8.1379    2.4054 C   0  0  0
   -2.6257   -8.7772    3.7739 C   0  0  0
   -0.8935   -8.2175    2.0597 C   0  0  0
   -2.7959   -6.7785    2.4336 O   0  0  0
   -2.7910   -6.1905    1.2162 C   0  0  0
   -2.8068   -4.7922    1.1968 C   0  0  0
    1.0039    1.9031    0.0027 H   0  0  0
   -0.5459    1.8868   -0.8726 H   0  0  0
   -0.5289    1.8773    0.9072 H   0  0  0
    0.5123   -0.3556   -0.8948 H   0  0  0
    0.5293   -0.3651    0.8851 H   0  0  0
   -1.9435   -0.1821    0.9097 H   0  0  0
   -1.9605   -0.1726   -0.8702 H   0  0  0
   -0.9024   -2.4150   -0.8923 H   0  0  0
   -0.8854   -2.4246    0.8875 H   0  0  0
   -3.3581   -2.2415    0.9121 H   0  0  0
   -3.3751   -2.2320   -0.8677 H   0  0  0
   -2.8423   -4.2396   -2.1288 H   0  0  0
   -1.8674   -6.9672   -2.6203 H   0  0  0
   -1.6597   -8.6585   -0.1386 H   0  0  0
   -3.6173   -8.5180   -2.0433 H   0  0  0
   -4.7713  -10.0936   -2.9186 H   0  0  0
   -4.3661  -11.7300   -2.3472 H   0  0  0
   -5.8528  -10.9320   -1.7803 H   0  0  0
   -4.9914  -11.0025    0.8053 H   0  0  0
   -3.6959  -12.0016    0.1191 H   0  0  0
   -3.2123  -10.7739    2.3595 H   0  0  0
   -1.9866  -10.6366    1.0694 H   0  0  0
   -4.2493   -8.6353    1.4654 H   0  0  0
   -2.0447   -8.2494    4.5302 H   0  0  0
   -3.6855   -8.7143    4.0206 H   0  0  0
   -2.3206   -9.8232    3.7458 H   0  0  0
   -0.3154   -7.6907    2.8189 H   0  0  0
   -0.5835   -9.2619    2.0268 H   0  0  0
   -0.7213   -7.7565    1.0871 H   0  0  0
   -2.8070   -4.2473    2.1293 H   0  0  0
  1  2  1  0
  1 24  1  0
  1 25  1  0
  1 26  1  0
  2  3  1  0
  2 27  1  0
  2 28  1  0
  3  4  1  0
  3 29  1  0
  3 30  1  0
  4  5  1  0
  4 31  1  0
  4 32  1  0
  5  6  1  0
  5 33  1  0
  5 34  1  0
  6 23  4  0
  6  7  4  0
  7  8  4  0
  7 35  1  0
  8  9  1  0
  8 10  4  0
  9 36  1  0
 10 22  4  0
 10 11  1  0
 11 17  1  0
 11 12  1  0
 11 37  1  0
 12 13  2  0
 12 38  1  0
 13 14  1  0
 13 15  1  0
 14 39  1  0
 14 40  1  0
 14 41  1  0
 15 16  1  0
 15 42  1  0
 15 43  1  0
 16 17  1  0
 16 44  1  0
 16 45  1  0
 17 18  1  0
 17 46  1  0
 18 19  1  0
 18 20  1  0
 18 21  1  0
 19 47  1  0
 19 48  1  0
 19 49  1  0
 20 50  1  0
 20 51  1  0
 20 52  1  0
 21 22  1  0
 22 23  4  0
 23 53  1  0
M  END
$$$$
CCCCCc1cc(O)c2C3C=C(C)CCC3C(C)(C)Oc2c1
CHcorina  02210111253D 1   1.00000    25.00000     0
CORINA evaluation copy  2.4  150  11.12.1900 (2001-3)
 53 55  0  0  0  0              1 V2000
   -0.0187    1.5258    0.0104 C   0  0  0
    0.0021   -0.0041    0.0020 C   0  0  0
   -1.4333   -0.5336    0.0129 C   0  0  0
   -1.4126   -2.0635    0.0045 C   0  0  0
   -2.8479   -2.5931    0.0153 C   0  0  0
   -2.8275   -4.0999    0.0070 C   0  0  0
   -2.8240   -4.7779   -1.1973 C   0  0  0
   -2.8197   -6.1701   -1.2122 C   0  0  0
   -2.8163   -6.8442   -2.3922 O   0  0  0
   -2.8195   -6.8541   -0.0229 C   0  0  0
   -2.8899   -8.3469    0.1070 C   0  0  0
   -3.1707   -9.0793   -1.1638 C   0  0  0
   -3.9015  -10.1570   -1.1779 C   0  0  0
   -4.1010  -10.8385   -2.5071 C   0  0  0
   -4.5600  -10.7762    0.0165 C   0  0  0
   -4.0686  -10.1471    1.3264 C   0  0  0
   -4.0048   -8.6405    1.1192 C   0  0  0
   -3.8363   -7.8300    2.3802 C   0  0  0
   -5.1242   -7.0433    2.6317 C   0  0  0
   -3.6137   -8.7886    3.5517 C   0  0  0
   -2.7483   -6.9167    2.3312 O   0  0  0
   -2.7951   -6.1730    1.1997 C   0  0  0
   -2.8067   -4.7917    1.2051 C   0  0  0
    1.0039    1.9031    0.0027 H   0  0  0
   -0.5459    1.8868   -0.8726 H   0  0  0
   -0.5289    1.8773    0.9072 H   0  0  0
    0.5123   -0.3556   -0.8948 H   0  0  0
    0.5293   -0.3651    0.8851 H   0  0  0
   -1.9435   -0.1821    0.9097 H   0  0  0
   -1.9605   -0.1726   -0.8702 H   0  0  0
   -0.9024   -2.4150   -0.8923 H   0  0  0
   -0.8854   -2.4246    0.8875 H   0  0  0
   -3.3581   -2.2415    0.9121 H   0  0  0
   -3.3751   -2.2320   -0.8677 H   0  0  0
   -2.8249   -4.2279   -2.1267 H   0  0  0
   -1.8899   -6.9801   -2.6338 H   0  0  0
   -1.9451   -8.7098    0.5117 H   0  0  0
   -2.7594   -8.7071   -2.0905 H   0  0  0
   -3.5704  -10.2855   -3.2822 H   0  0  0
   -3.7124  -11.8556   -2.4558 H   0  0  0
   -5.1644  -10.8673   -2.7447 H   0  0  0
   -5.6384  -10.6382   -0.0611 H   0  0  0
   -4.3390  -11.8435    0.0304 H   0  0  0
   -4.7640  -10.3806    2.1326 H   0  0  0
   -3.0775  -10.5291    1.5712 H   0  0  0
   -4.9471   -8.3305    0.6675 H   0  0  0
   -5.0171   -6.4520    3.5411 H   0  0  0
   -5.3158   -6.3805    1.7878 H   0  0  0
   -5.9573   -7.7369    2.7454 H   0  0  0
   -3.4902   -8.2163    4.4711 H   0  0  0
   -4.4746   -9.4501    3.6485 H   0  0  0
   -2.7178   -9.3824    3.3702 H   0  0  0
   -2.8037   -4.2535    2.1415 H   0  0  0
  1  2  1  0
  1 24  1  0
  1 25  1  0
  1 26  1  0
  2  3  1  0
  2 27  1  0
  2 28  1  0
  3  4  1  0
  3 29  1  0
  3 30  1  0
  4  5  1  0
  4 31  1  0
  4 32  1  0
  5  6  1  0
  5 33  1  0
  5 34  1  0
  6 23  4  0
  6  7  4  0
  7  8  4  0
  7 35  1  0
  8  9  1  0
  8 10  4  0
  9 36  1  0
 10 22  4  0
 10 11  1  0
 11 17  1  0
 11 12  1  0
 11 37  1  0
 12 13  2  0
 12 38  1  0
 13 14  1  0
 13 15  1  0
 14 39  1  0
 14 40  1  0
 14 41  1  0
 15 16  1  0
 15 42  1  0
 15 43  1  0
 16 17  1  0
 16 44  1  0
 16 45  1  0
 17 18  1  0
 17 46  1  0
 18 19  1  0
 18 20  1  0
 18 21  1  0
 19 47  1  0
 19 48  1  0
 19 49  1  0
 20 50  1  0
 20 51  1  0
 20 52  1  0
 21 22  1  0
 22 23  4  0
 23 53  1  0
M  END
$$$$
CCCCCc1cc(O)c2C3C=C(C)CCC3C(C)(C)Oc2c1
CHcorina  02210111253D 1   1.00000    33.00000     0
CORINA evaluation copy  2.4  150  11.12.1900 (2001-3)
 53 55  0  0  0  0              1 V2000
   -0.0187    1.5258    0.0104 C   0  0  0
    0.0021   -0.0041    0.0020 C   0  0  0
   -1.4333   -0.5336    0.0129 C   0  0  0
   -1.4126   -2.0635    0.0045 C   0  0  0
   -2.8479   -2.5931    0.0153 C   0  0  0
   -2.8275   -4.0999    0.0070 C   0  0  0
   -2.8239   -4.7820   -1.1950 C   0  0  0
   -2.7953   -6.1677   -1.1920 C   0  0  0
   -2.7925   -6.8458   -2.3697 O   0  0  0
   -2.7691   -6.8669    0.0066 C   0  0  0
   -2.6898   -8.3653   -0.0224 C   0  0  0
   -3.5849   -9.0000   -1.0570 C   0  0  0
   -3.5949  -10.3326   -1.0040 C   0  0  0
   -4.4443  -11.1588   -1.9350 C   0  0  0
   -2.7050  -10.9702    0.0434 C   0  0  0
   -3.0265  -10.3954    1.4271 C   0  0  0
   -3.1263   -8.8852    1.3531 C   0  0  0
   -2.3471   -8.1233    2.4149 C   0  0  0
   -2.5840   -8.7642    3.7839 C   0  0  0
   -0.8541   -8.1630    2.0828 C   0  0  0
   -2.7989   -6.7761    2.4348 O   0  0  0
   -2.7913   -6.1911    1.2161 C   0  0  0
   -2.8068   -4.7922    1.1968 C   0  0  0
    1.0039    1.9031    0.0027 H   0  0  0
   -0.5459    1.8868   -0.8726 H   0  0  0
   -0.5289    1.8773    0.9072 H   0  0  0
    0.5123   -0.3556   -0.8948 H   0  0  0
    0.5293   -0.3651    0.8851 H   0  0  0
   -1.9435   -0.1821    0.9097 H   0  0  0
   -1.9605   -0.1726   -0.8702 H   0  0  0
   -0.9024   -2.4150   -0.8923 H   0  0  0
   -0.8854   -2.4246    0.8875 H   0  0  0
   -3.3581   -2.2415    0.9121 H   0  0  0
   -3.3751   -2.2320   -0.8677 H   0  0  0
   -2.8436   -4.2397   -2.1288 H   0  0  0
   -1.8665   -6.9662   -2.6207 H   0  0  0
   -1.6583   -8.6660   -0.2062 H   0  0  0
   -4.1612   -8.4310   -1.7714 H   0  0  0
   -4.9996  -10.4992   -2.6018 H   0  0  0
   -3.8043  -11.8158   -2.5240 H   0  0  0
   -5.1434  -11.7591   -1.3527 H   0  0  0
   -2.8723  -12.0473    0.0522 H   0  0  0
   -1.6615  -10.7682   -0.1979 H   0  0  0
   -3.9748  -10.8036    1.7765 H   0  0  0
   -2.2365  -10.6716    2.1255 H   0  0  0
   -4.1764   -8.6213    1.4792 H   0  0  0
   -2.0249   -8.2169    4.5429 H   0  0  0
   -3.6473   -8.7311    4.0214 H   0  0  0
   -2.2486   -9.8011    3.7626 H   0  0  0
   -0.2978   -7.6167    2.8446 H   0  0  0
   -0.5148   -9.1985    2.0578 H   0  0  0
   -0.6860   -7.7019    1.1096 H   0  0  0
   -2.8067   -4.2474    2.1293 H   0  0  0
  1  2  1  0
  1 24  1  0
  1 25  1  0
  1 26  1  0
  2  3  1  0
  2 27  1  0
  2 28  1  0
  3  4  1  0
  3 29  1  0
  3 30  1  0
  4  5  1  0
  4 31  1  0
  4 32  1  0
  5  6  1  0
  5 33  1  0
  5 34  1  0
  6 23  4  0
  6  7  4  0
  7  8  4  0
  7 35  1  0
  8  9  1  0
  8 10  4  0
  9 36  1  0
 10 22  4  0
 10 11  1  0
 11 17  1  0
 11 12  1  0
 11 37  1  0
 12 13  2  0
 12 38  1  0
 13 14  1  0
 13 15  1  0
 14 39  1  0
 14 40  1  0
 14 41  1  0
 15 16  1  0
 15 42  1  0
 15 43  1  0
 16 17  1  0
 16 44  1  0
 16 45  1  0
 17 18  1  0
 17 46  1  0
 18 19  1  0
 18 20  1  0
 18 21  1  0
 19 47  1  0
 19 48  1  0
 19 49  1  0
 20 50  1  0
 20 51  1  0
 20 52  1  0
 21 22  1  0
 22 23  4  0
 23 53  1  0
M  END
$$$$
