Cc1cn(C2CC(N=[N+]=[N-])C(CO)O2)c(=O)[nH]c1=O
CHcorina  03230118583D 1   1.00000     0.00000     0
CORINA evaluation copy  2.4  150  11.12.1900 (2001-3)
 32 33  0  0  0  0              2 V2000
   -0.0184    1.5028    0.0103 C   0  0  0
    0.0021   -0.0041    0.0020 C   0  0  0
    0.0058   -0.6818   -1.1658 C   0  0  0
    0.0244   -2.0500   -1.1552 N   0  0  0
    0.0285   -2.7854   -2.4222 C   0  0  0
   -1.4169   -3.0058   -2.9208 C   0  0  0
   -1.3125   -2.8526   -4.4547 C   0  0  0
   -2.1390   -1.7346   -4.9163 N   0  0  0
   -3.2509   -1.7529   -4.7534 N   0  3  0
   -4.3629   -1.7712   -4.5904 N   0  5  0
    0.1837   -2.5577   -4.7015 C   0  0  0
    0.3468   -1.5442   -5.8359 C   0  0  0
    1.7361   -1.2857   -6.0477 O   0  0  0
    0.6601   -2.0006   -3.4571 O   0  0  0
    0.0394   -2.7261    0.0078 C   0  0  0
    0.0563   -3.9418   -0.0058 O   0  0  0
    0.0366   -2.0758    1.1863 N   0  0  0
    0.0482   -2.5788    2.0156 H   0  0  0
    0.0235   -0.7279    1.2186 C   0  0  0
    0.0212   -0.1387    2.2843 O   0  0  0
    1.0042    1.8801    0.0026 H   0  0  0
   -0.5455    1.8639   -0.8728 H   0  0  0
   -0.5286    1.8543    0.9071 H   0  0  0
   -0.0061   -0.1466   -2.1038 H   0  0  0
    0.5407   -3.7403   -2.3042 H   0  0  0
   -1.7627   -4.0060   -2.6595 H   0  0  0
   -2.0835   -2.2497   -2.5059 H   0  0  0
   -1.6089   -3.7762   -4.9518 H   0  0  0
    0.7181   -3.4782   -4.9363 H   0  0  0
   -0.0912   -1.9473   -6.7490 H   0  0  0
   -0.1589   -0.6161   -5.5694 H   0  0  0
    1.7943   -0.6439   -6.7687 H   0  0  0
  1  2  1  0
  1 21  1  0
  1 22  1  0
  1 23  1  0
  2 19  4  0
  2  3  4  0
  3  4  4  0
  3 24  1  0
  4  5  1  0
  4 15  4  0
  5 14  1  0
  5  6  1  0
  5 25  1  0
  6  7  1  0
  6 26  1  0
  6 27  1  0
  7  8  1  0
  7 11  1  0
  7 28  1  0
  8  9  2  0
  9 10  2  0
 11 12  1  0
 11 14  1  0
 11 29  1  0
 12 13  1  0
 12 30  1  0
 12 31  1  0
 13 32  1  0
 15 16  2  0
 15 17  4  0
 17 18  1  0
 17 19  4  0
 19 20  2  0
M  CHG  2   9   1  10  -1
M  END
$$$$
Cc1cn(C2CC(N=[N+]=[N-])C(CO)O2)c(=O)[nH]c1=O
CHcorina  03230118583D 1   1.00000     1.00000     0
CORINA evaluation copy  2.4  150  11.12.1900 (2001-3)
 32 33  0  0  0  0              2 V2000
   -0.0184    1.5028    0.0103 C   0  0  0
    0.0021   -0.0041    0.0020 C   0  0  0
    0.0058   -0.6818   -1.1658 C   0  0  0
    0.0244   -2.0500   -1.1552 N   0  0  0
    0.0285   -2.7854   -2.4222 C   0  0  0
   -1.4219   -3.0606   -2.8740 C   0  0  0
   -1.6687   -1.9224   -3.9013 C   0  0  0
   -2.0771   -0.6856   -3.2307 N   0  0  0
   -3.0240   -0.6607   -2.6256 N   0  3  0
   -3.9709   -0.6358   -2.0205 N   0  5  0
   -0.2580   -1.7790   -4.5259 C   0  0  0
   -0.0724   -0.3737   -5.1020 C   0  0  0
    1.2329   -0.2614   -5.6727 O   0  0  0
    0.6569   -1.9979   -3.4404 O   0  0  0
    0.0394   -2.7261    0.0078 C   0  0  0
    0.0563   -3.9418   -0.0058 O   0  0  0
    0.0366   -2.0758    1.1863 N   0  0  0
    0.0482   -2.5788    2.0156 H   0  0  0
    0.0235   -0.7279    1.2186 C   0  0  0
    0.0212   -0.1387    2.2843 O   0  0  0
    1.0042    1.8801    0.0026 H   0  0  0
   -0.5455    1.8639   -0.8728 H   0  0  0
   -0.5286    1.8543    0.9071 H   0  0  0
   -0.0061   -0.1466   -2.1038 H   0  0  0
    0.5621   -3.7281   -2.3008 H   0  0  0
   -1.5017   -4.0379   -3.3501 H   0  0  0
   -2.1120   -2.9822   -2.0339 H   0  0  0
   -2.4026   -2.2214   -4.6497 H   0  0  0
   -0.1104   -2.5283   -5.3036 H   0  0  0
   -0.8224   -0.1950   -5.8725 H   0  0  0
   -0.1858    0.3629   -4.3066 H   0  0  0
    1.3083    0.6366   -6.0233 H   0  0  0
  1  2  1  0
  1 21  1  0
  1 22  1  0
  1 23  1  0
  2 19  4  0
  2  3  4  0
  3  4  4  0
  3 24  1  0
  4  5  1  0
  4 15  4  0
  5 14  1  0
  5  6  1  0
  5 25  1  0
  6  7  1  0
  6 26  1  0
  6 27  1  0
  7  8  1  0
  7 11  1  0
  7 28  1  0
  8  9  2  0
  9 10  2  0
 11 12  1  0
 11 14  1  0
 11 29  1  0
 12 13  1  0
 12 30  1  0
 12 31  1  0
 13 32  1  0
 15 16  2  0
 15 17  4  0
 17 18  1  0
 17 19  4  0
 19 20  2  0
M  CHG  2   9   1  10  -1
M  END
$$$$
Cc1cn(C2CC(N=[N+]=[N-])C(CO)O2)c(=O)[nH]c1=O
CHcorina  03230118583D 1   1.00000     1.00000     0
CORINA evaluation copy  2.4  150  11.12.1900 (2001-3)
 32 33  0  0  0  0              2 V2000
   -0.0184    1.5028    0.0103 C   0  0  0
    0.0021   -0.0041    0.0020 C   0  0  0
    0.0058   -0.6818   -1.1658 C   0  0  0
    0.0244   -2.0500   -1.1552 N   0  0  0
    0.0285   -2.7854   -2.4222 C   0  0  0
   -1.4221   -3.0134   -2.9168 C   0  0  0
   -1.1910   -3.1742   -4.4441 C   0  0  0
   -2.3768   -2.7602   -5.1982 N   0  0  0
   -3.3526   -3.2983   -5.0511 N   0  3  0
   -4.3284   -3.8365   -4.9039 N   0  5  0
   -0.0119   -2.2112   -4.7002 C   0  0  0
   -0.5366   -0.8778   -5.2366 C   0  0  0
    0.5611    0.0066   -5.4706 O   0  0  0
    0.6569   -2.0038   -3.4507 O   0  0  0
    0.0394   -2.7261    0.0078 C   0  0  0
    0.0563   -3.9418   -0.0058 O   0  0  0
    0.0366   -2.0758    1.1863 N   0  0  0
    0.0482   -2.5788    2.0156 H   0  0  0
    0.0235   -0.7279    1.2186 C   0  0  0
    0.0212   -0.1387    2.2843 O   0  0  0
    1.0042    1.8801    0.0026 H   0  0  0
   -0.5455    1.8639   -0.8728 H   0  0  0
   -0.5286    1.8543    0.9071 H   0  0  0
   -0.0061   -0.1466   -2.1038 H   0  0  0
    0.5434   -3.7387   -2.3034 H   0  0  0
   -1.8459   -3.9205   -2.4860 H   0  0  0
   -2.0503   -2.1485   -2.7035 H   0  0  0
   -0.9150   -4.1997   -4.6895 H   0  0  0
    0.6778   -2.6532   -5.4193 H   0  0  0
   -1.0721   -1.0474   -6.1707 H   0  0  0
   -1.2123   -0.4330   -4.5060 H   0  0  0
    0.1876    0.8327   -5.8070 H   0  0  0
  1  2  1  0
  1 21  1  0
  1 22  1  0
  1 23  1  0
  2 19  4  0
  2  3  4  0
  3  4  4  0
  3 24  1  0
  4  5  1  0
  4 15  4  0
  5 14  1  0
  5  6  1  0
  5 25  1  0
  6  7  1  0
  6 26  1  0
  6 27  1  0
  7  8  1  0
  7 11  1  0
  7 28  1  0
  8  9  2  0
  9 10  2  0
 11 12  1  0
 11 14  1  0
 11 29  1  0
 12 13  1  0
 12 30  1  0
 12 31  1  0
 13 32  1  0
 15 16  2  0
 15 17  4  0
 17 18  1  0
 17 19  4  0
 19 20  2  0
M  CHG  2   9   1  10  -1
M  END
$$$$
