CCn1cc(C(=O)O)c(=O)c2ccc(C)nc12
CHcorina  02130121013D 1   1.00000     0.00000     0
CORINA evaluation copy  2.4  150  11.12.1900 (2001-3)
 29 30  0  0  0  0              1 V2000
   -0.0187    1.5258    0.0104 C   0  0  0
    0.0021   -0.0041    0.0020 C   0  0  0
   -1.3723   -0.5112    0.0124 N   0  0  0
   -1.9821   -0.7315   -1.1601 C   0  0  0
   -3.2743   -1.2084   -1.2406 C   0  0  0
   -3.9079   -1.4375   -2.5470 C   0  0  0
   -5.0470   -1.8580   -2.6047 O   0  0  0
   -3.2257   -1.1814   -3.6811 O   0  0  0
   -4.0066   -1.4840    0.0071 C   0  0  0
   -5.1495   -1.9064   -0.0065 O   0  0  0
   -3.2968   -1.2271    1.2725 C   0  0  0
   -3.9064   -1.4578    2.5077 C   0  0  0
   -3.1752   -1.1929    3.6514 C   0  0  0
   -1.8797   -0.7139    3.5328 C   0  0  0
   -1.0856   -0.4262    4.7808 C   0  0  0
   -1.3261   -0.5046    2.3573 N   0  0  0
   -1.9772   -0.7451    1.2255 C   0  0  0
    1.0039    1.9031    0.0027 H   0  0  0
   -0.5459    1.8868   -0.8726 H   0  0  0
   -0.5289    1.8773    0.9072 H   0  0  0
    0.5123   -0.3556   -0.8948 H   0  0  0
    0.5293   -0.3651    0.8851 H   0  0  0
   -1.4435   -0.5285   -2.0739 H   0  0  0
   -3.6425   -1.3321   -4.5406 H   0  0  0
   -4.9179   -1.8313    2.5679 H   0  0  0
   -3.6091   -1.3572    4.6266 H   0  0  0
   -0.5380   -1.3208    5.0774 H   0  0  0
   -0.3814    0.3825    4.5851 H   0  0  0
   -1.7628   -0.1322    5.5827 H   0  0  0
  1  2  1  0
  1 18  1  0
  1 19  1  0
  1 20  1  0
  2  3  1  0
  2 21  1  0
  2 22  1  0
  3 17  4  0
  3  4  4  0
  4  5  4  0
  4 23  1  0
  5  6  1  0
  5  9  4  0
  6  7  2  0
  6  8  1  0
  8 24  1  0
  9 10  2  0
  9 11  4  0
 11 17  4  0
 11 12  4  0
 12 13  4  0
 12 25  1  0
 13 14  4  0
 13 26  1  0
 14 15  1  0
 14 16  4  0
 15 27  1  0
 15 28  1  0
 15 29  1  0
 16 17  4  0
M  END
$$$$
