COC1C(CC2CN3CCc4c([nH]c5cc(OC)ccc45)C3CC2C1C(=O)OC)OC(=O)c6cc(OC)c(OC)c(OC)c6
CHcorina  02130121013D 1   1.00000     0.00000     0
CORINA evaluation copy  2.4  150  11.12.1900 (2001-3)
 84 89  0  0  0  0              1 V2000
   -0.0351    1.4247    0.0111 C   0  0  0
   -0.0131   -0.0041    0.0031 O   0  0  0
   -1.3745   -0.4382    0.0119 C   0  0  0
   -1.8733   -0.5760   -1.4270 C   0  0  0
   -1.0345   -1.6197   -2.1702 C   0  0  0
   -1.1545   -2.9615   -1.4487 C   0  0  0
   -0.3542   -4.0387   -2.1803 C   0  0  0
   -0.5263   -5.3185   -1.4832 N   0  0  0
    0.2131   -6.3390   -2.2315 C   0  0  0
   -0.1407   -7.7308   -1.6848 C   0  0  0
    0.0050   -7.6873   -0.1842 C   0  0  0
    0.1165   -6.5297    0.5105 C   0  0  0
    0.2352   -6.8032    1.8457 N   0  0  0
    0.3264   -6.1378    2.5456 H   0  0  0
    0.2059   -8.1546    2.0450 C   0  0  0
    0.2926   -8.9276    3.2003 C   0  0  0
    0.2268  -10.3056    3.0419 C   0  0  0
    0.3075  -11.0993    4.1426 O   0  0  0
    0.5722  -10.2397    5.2531 C   0  0  0
    0.0815  -10.8991    1.7935 C   0  0  0
   -0.0056  -10.1591    0.6412 C   0  0  0
    0.0582   -8.7681    0.7732 C   0  0  0
    0.1026   -5.1823   -0.1641 C   0  0  0
   -0.6797   -4.1729    0.6788 C   0  0  0
   -0.6215   -2.8128   -0.0208 C   0  0  0
   -1.4735   -1.7886    0.7276 C   0  0  0
   -0.9683   -1.6487    2.1405 C   0  0  0
   -0.0222   -2.3023    2.5113 O   0  0  0
   -1.5694   -0.7979    2.9870 O   0  0  0
   -1.0827   -0.6630    4.3483 C   0  0  0
   -3.2642   -0.9925   -1.4177 O   0  0  0
   -4.0854   -0.6213   -2.4195 C   0  0  0
   -3.6619    0.0620   -3.3306 O   0  0  0
   -5.4982   -1.0443   -2.4101 C   0  0  0
   -5.9882   -1.8255   -1.3597 C   0  0  0
   -7.3125   -2.2201   -1.3531 C   0  0  0
   -7.7899   -2.9802   -0.3314 O   0  0  0
   -6.6984   -3.2011    0.5641 C   0  0  0
   -8.1589   -1.8397   -2.3916 C   0  0  0
   -9.4608   -2.2287   -2.3825 O   0  0  0
  -10.1906   -1.2126   -1.6919 C   0  0  0
   -7.6737   -1.0612   -3.4390 C   0  0  0
   -8.5032   -0.6907   -4.4511 O   0  0  0
   -7.7236    0.0899   -5.3593 C   0  0  0
   -6.3509   -0.6600   -3.4484 C   0  0  0
    0.9868    1.8039    0.0048 H   0  0  0
   -0.5618    1.7849   -0.8726 H   0  0  0
   -0.5472    1.7752    0.9073 H   0  0  0
   -1.9854    0.2958    0.5373 H   0  0  0
   -1.7875    0.3852   -1.9338 H   0  0  0
   -1.4003   -1.7212   -3.1919 H   0  0  0
    0.0092   -1.3056   -2.1847 H   0  0  0
   -2.2021   -3.2603   -1.4138 H   0  0  0
   -0.7162   -4.1296   -3.2043 H   0  0  0
    0.7013   -3.7667   -2.1880 H   0  0  0
   -0.0570   -6.2834   -3.2860 H   0  0  0
    1.2836   -6.1664   -2.1208 H   0  0  0
   -1.1682   -7.9808   -1.9488 H   0  0  0
    0.5394   -8.4744   -2.1003 H   0  0  0
    0.4061   -8.4760    4.1748 H   0  0  0
    0.6458  -10.8346    6.1635 H   0  0  0
    1.5110   -9.7110    5.0876 H   0  0  0
   -0.2381   -9.5179    5.3551 H   0  0  0
    0.0362  -11.9761    1.7283 H   0  0  0
   -0.1182  -10.6297   -0.3244 H   0  0  0
    1.1263   -4.8283   -0.2862 H   0  0  0
   -1.7170   -4.4955    0.7689 H   0  0  0
   -0.2312   -4.0958    1.6693 H   0  0  0
    0.4113   -2.4661   -0.0538 H   0  0  0
   -2.5122   -2.1187    0.7413 H   0  0  0
   -1.6912    0.0678    4.8810 H   0  0  0
   -1.1462   -1.6265    4.8540 H   0  0  0
   -0.0452   -0.3291    4.3318 H   0  0  0
   -5.3322   -2.1208   -0.5541 H   0  0  0
   -7.0347   -3.8092    1.4038 H   0  0  0
   -5.8963   -3.7192    0.0384 H   0  0  0
   -6.3316   -2.2432    0.9331 H   0  0  0
  -11.2463   -1.4821   -1.6590 H   0  0  0
   -9.8081   -1.1175   -0.6757 H   0  0  0
  -10.0742   -0.2630   -2.2142 H   0  0  0
   -8.3494    0.4113   -6.1919 H   0  0  0
   -7.3304    0.9648   -4.8415 H   0  0  0
   -6.8964   -0.5109   -5.7373 H   0  0  0
   -5.9750   -0.0561   -4.2610 H   0  0  0
  1  2  1  0
  1 46  1  0
  1 47  1  0
  1 48  1  0
  2  3  1  0
  3 26  1  0
  3  4  1  0
  3 49  1  0
  4  5  1  0
  4 31  1  0
  4 50  1  0
  5  6  1  0
  5 51  1  0
  5 52  1  0
  6 25  1  0
  6  7  1  0
  6 53  1  0
  7  8  1  0
  7 54  1  0
  7 55  1  0
  8 23  1  0
  8  9  1  0
  9 10  1  0
  9 56  1  0
  9 57  1  0
 10 11  1  0
 10 58  1  0
 10 59  1  0
 11 22  4  0
 11 12  4  0
 12 13  4  0
 12 23  1  0
 13 14  1  0
 13 15  4  0
 15 22  4  0
 15 16  4  0
 16 17  4  0
 16 60  1  0
 17 18  1  0
 17 20  4  0
 18 19  1  0
 19 61  1  0
 19 62  1  0
 19 63  1  0
 20 21  4  0
 20 64  1  0
 21 22  4  0
 21 65  1  0
 23 24  1  0
 23 66  1  0
 24 25  1  0
 24 67  1  0
 24 68  1  0
 25 26  1  0
 25 69  1  0
 26 27  1  0
 26 70  1  0
 27 28  2  0
 27 29  1  0
 29 30  1  0
 30 71  1  0
 30 72  1  0
 30 73  1  0
 31 32  1  0
 32 33  2  0
 32 34  1  0
 34 45  4  0
 34 35  4  0
 35 36  4  0
 35 74  1  0
 36 37  1  0
 36 39  4  0
 37 38  1  0
 38 75  1  0
 38 76  1  0
 38 77  1  0
 39 40  1  0
 39 42  4  0
 40 41  1  0
 41 78  1  0
 41 79  1  0
 41 80  1  0
 42 43  1  0
 42 45  4  0
 43 44  1  0
 44 81  1  0
 44 82  1  0
 44 83  1  0
 45 84  1  0
M  END
$$$$
COC1C(CC2CN3CCc4c([nH]c5cc(OC)ccc45)C3CC2C1C(=O)OC)OC(=O)c6cc(OC)c(OC)c(OC)c6
CHcorina  02130121013D 1   1.00000    20.00000     0
CORINA evaluation copy  2.4  150  11.12.1900 (2001-3)
 84 89  0  0  0  0              1 V2000
   -0.0101    1.4136   -0.0027 C   0  0  0
    0.0070   -0.0152   -0.0101 O   0  0  0
   -1.3559   -0.4447    0.0029 C   0  0  0
   -1.8589   -0.5775   -1.4327 C   0  0  0
   -3.3660   -0.8154   -1.4370 C   0  0  0
   -3.7794   -1.6204   -0.2039 C   0  0  0
   -5.0530   -2.4049   -0.5302 C   0  0  0
   -5.4722   -3.1830    0.6387 N   0  0  0
   -6.7175   -3.8737    0.2910 C   0  0  0
   -7.3158   -4.5187    1.5504 C   0  0  0
   -6.2214   -5.3053    2.2276 C   0  0  0
   -4.9124   -5.1662    1.9097 C   0  0  0
   -4.1583   -6.0060    2.6833 N   0  0  0
   -3.1929   -6.0894    2.6389 H   0  0  0
   -4.9701   -6.7092    3.5278 C   0  0  0
   -4.6953   -7.6702    4.4979 C   0  0  0
   -5.7795   -8.1935    5.1897 C   0  0  0
   -5.5581   -9.1340    6.1460 O   0  0  0
   -4.1411   -9.2662    6.2751 C   0  0  0
   -7.0838   -7.7861    4.9359 C   0  0  0
   -7.3795   -6.8410    3.9861 C   0  0  0
   -6.3049   -6.2973    3.2747 C   0  0  0
   -4.4361   -4.2036    0.8517 C   0  0  0
   -3.1475   -3.5177    1.3047 C   0  0  0
   -2.6587   -2.5779    0.1967 C   0  0  0
   -1.4562   -1.7893    0.7170 C   0  0  0
   -0.1972   -2.5798    0.4701 C   0  0  0
   -0.2580   -3.6608   -0.0661 O   0  0  0
    0.9918   -2.0830    0.8459 O   0  0  0
    2.2049   -2.8447    0.6080 C   0  0  0
   -1.5616    0.6423   -2.1621 O   0  0  0
   -1.3338    0.5952   -3.4894 C   0  0  0
   -1.3772   -0.4681   -4.0758 O   0  0  0
   -1.0319    1.8341   -4.2302 C   0  0  0
   -0.9760    3.0572   -3.5558 C   0  0  0
   -0.6924    4.2164   -4.2525 C   0  0  0
   -0.6379    5.4068   -3.5970 O   0  0  0
   -0.9138    5.1340   -2.2216 C   0  0  0
   -0.4619    4.1669   -5.6250 C   0  0  0
   -0.1828    5.3083   -6.3075 O   0  0  0
    1.2371    5.4669   -6.2839 C   0  0  0
   -0.5165    2.9499   -6.2992 C   0  0  0
   -0.2901    2.9050   -7.6395 O   0  0  0
   -0.4145    1.5372   -8.0338 C   0  0  0
   -0.7954    1.7866   -5.6067 C   0  0  0
    1.0131    1.7893   -0.0122 H   0  0  0
   -0.5381    1.7752   -0.8851 H   0  0  0
   -0.5183    1.7663    0.8947 H   0  0  0
   -1.9619    0.2914    0.5311 H   0  0  0
   -1.3588   -1.4174   -1.9149 H   0  0  0
   -3.8825    0.1445   -1.4307 H   0  0  0
   -3.6415   -1.3663   -2.3362 H   0  0  0
   -3.9829   -0.9377    0.6211 H   0  0  0
   -5.8460   -1.7099   -0.8062 H   0  0  0
   -4.8593   -3.0796   -1.3641 H   0  0  0
   -7.4272   -3.1569   -0.1221 H   0  0  0
   -6.5098   -4.6465   -0.4491 H   0  0  0
   -7.6843   -3.7440    2.2228 H   0  0  0
   -8.1320   -5.1854    1.2720 H   0  0  0
   -3.6854   -7.9936    4.7024 H   0  0  0
   -3.9137  -10.0138    7.0351 H   0  0  0
   -3.7168   -9.5776    5.3206 H   0  0  0
   -3.7120   -8.3080    6.5682 H   0  0  0
   -7.8896   -8.2273    5.5036 H   0  0  0
   -8.3965   -6.5312    3.7960 H   0  0  0
   -4.2595   -4.7432   -0.0787 H   0  0  0
   -3.3391   -2.9439    2.2114 H   0  0  0
   -2.3854   -4.2704    1.5069 H   0  0  0
   -2.3571   -3.1657   -0.6702 H   0  0  0
   -1.5713   -1.6210    1.7877 H   0  0  0
    3.0639   -2.2848    0.9779 H   0  0  0
    2.1421   -3.8000    1.1291 H   0  0  0
    2.3193   -3.0210   -0.4615 H   0  0  0
   -1.1546    3.0962   -2.4914 H   0  0  0
   -0.8810    6.0635   -1.6532 H   0  0  0
   -1.9041    4.6876   -2.1313 H   0  0  0
   -0.1667    4.4429   -1.8314 H   0  0  0
    1.5103    6.3745   -6.8222 H   0  0  0
    1.5774    5.5406   -5.2510 H   0  0  0
    1.7068    4.6064   -6.7606 H   0  0  0
   -0.2404    1.4509   -9.1063 H   0  0  0
    0.3194    0.9361   -7.4970 H   0  0  0
   -1.4176    1.1811   -7.7988 H   0  0  0
   -0.8376    0.8429   -6.1301 H   0  0  0
  1  2  1  0
  1 46  1  0
  1 47  1  0
  1 48  1  0
  2  3  1  0
  3 26  1  0
  3  4  1  0
  3 49  1  0
  4  5  1  0
  4 31  1  0
  4 50  1  0
  5  6  1  0
  5 51  1  0
  5 52  1  0
  6 25  1  0
  6  7  1  0
  6 53  1  0
  7  8  1  0
  7 54  1  0
  7 55  1  0
  8 23  1  0
  8  9  1  0
  9 10  1  0
  9 56  1  0
  9 57  1  0
 10 11  1  0
 10 58  1  0
 10 59  1  0
 11 22  4  0
 11 12  4  0
 12 13  4  0
 12 23  1  0
 13 14  1  0
 13 15  4  0
 15 22  4  0
 15 16  4  0
 16 17  4  0
 16 60  1  0
 17 18  1  0
 17 20  4  0
 18 19  1  0
 19 61  1  0
 19 62  1  0
 19 63  1  0
 20 21  4  0
 20 64  1  0
 21 22  4  0
 21 65  1  0
 23 24  1  0
 23 66  1  0
 24 25  1  0
 24 67  1  0
 24 68  1  0
 25 26  1  0
 25 69  1  0
 26 27  1  0
 26 70  1  0
 27 28  2  0
 27 29  1  0
 29 30  1  0
 30 71  1  0
 30 72  1  0
 30 73  1  0
 31 32  1  0
 32 33  2  0
 32 34  1  0
 34 45  4  0
 34 35  4  0
 35 36  4  0
 35 74  1  0
 36 37  1  0
 36 39  4  0
 37 38  1  0
 38 75  1  0
 38 76  1  0
 38 77  1  0
 39 40  1  0
 39 42  4  0
 40 41  1  0
 41 78  1  0
 41 79  1  0
 41 80  1  0
 42 43  1  0
 42 45  4  0
 43 44  1  0
 44 81  1  0
 44 82  1  0
 44 83  1  0
 45 84  1  0
M  END
$$$$
COC1C(CC2CN3CCc4c([nH]c5cc(OC)ccc45)C3CC2C1C(=O)OC)OC(=O)c6cc(OC)c(OC)c(OC)c6
CHcorina  02130121013D 1   1.00000    25.00000     0
CORINA evaluation copy  2.4  150  11.12.1900 (2001-3)
 84 89  0  0  0  0              1 V2000
   -0.0120    1.4095    0.0030 C   0  0  0
    0.0044   -0.0194   -0.0046 O   0  0  0
   -1.3588   -0.4481    0.0074 C   0  0  0
   -1.8607   -0.5883   -1.4314 C   0  0  0
   -3.3301   -1.0205   -1.4208 C   0  0  0
   -3.7837   -1.2056    0.0270 C   0  0  0
   -5.2499   -1.6354    0.0763 C   0  0  0
   -5.6654   -1.7675    1.4771 N   0  0  0
   -7.0839   -2.1363    1.4905 C   0  0  0
   -7.6237   -2.0434    2.9261 C   0  0  0
   -6.6725   -2.7925    3.8256 C   0  0  0
   -5.4356   -3.1774    3.4293 C   0  0  0
   -4.8076   -3.8344    4.4519 N   0  0  0
   -3.9122   -4.2050    4.4104 H   0  0  0
   -5.6314   -3.8895    5.5405 C   0  0  0
   -5.4624   -4.4403    6.8087 C   0  0  0
   -6.5244   -4.3170    7.6945 C   0  0  0
   -6.4038   -4.8398    8.9436 O   0  0  0
   -5.0634   -5.3207    9.0624 C   0  0  0
   -7.7066   -3.6757    7.3448 C   0  0  0
   -7.8964   -3.1244    6.1028 C   0  0  0
   -6.8418   -3.2351    5.1904 C   0  0  0
   -4.9041   -2.8842    2.0500 C   0  0  0
   -3.4215   -2.5132    2.1209 C   0  0  0
   -2.9136   -2.2729    0.6968 C   0  0  0
   -1.4617   -1.7972    0.7233 C   0  0  0
   -0.5894   -2.8061    0.0218 C   0  0  0
   -1.0801   -3.8039   -0.4510 O   0  0  0
    0.7327   -2.5963   -0.0779 O   0  0  0
    1.5731   -3.5685   -0.7538 C   0  0  0
   -1.7369    0.6878   -2.1131 O   0  0  0
   -1.5235    0.7233   -3.4431 C   0  0  0
   -1.4347   -0.3126   -4.0720 O   0  0  0
   -1.3979    2.0194   -4.1354 C   0  0  0
   -1.4942    3.2117   -3.4123 C   0  0  0
   -1.3756    4.4247   -4.0635 C   0  0  0
   -1.4692    5.5852   -3.3605 O   0  0  0
   -1.6874    5.2246   -1.9951 C   0  0  0
   -1.1599    4.4600   -5.4389 C   0  0  0
   -1.0432    5.6542   -6.0767 O   0  0  0
    0.3437    5.9980   -6.0591 C   0  0  0
   -1.0631    3.2739   -6.1616 C   0  0  0
   -0.8515    3.3120   -7.5046 O   0  0  0
   -0.8002    1.9562   -7.9532 C   0  0  0
   -1.1766    2.0577   -5.5147 C   0  0  0
    1.0114    1.7846   -0.0058 H   0  0  0
   -0.5392    1.7715   -0.8797 H   0  0  0
   -0.5207    1.7623    0.9001 H   0  0  0
   -1.9657    0.2886    0.5336 H   0  0  0
   -1.2654   -1.3385   -1.9520 H   0  0  0
   -3.9395   -0.2536   -1.8990 H   0  0  0
   -3.4375   -1.9616   -1.9601 H   0  0  0
   -3.6728   -0.2627    0.5624 H   0  0  0
   -5.8665   -0.8840   -0.4171 H   0  0  0
   -5.3657   -2.5938   -0.4298 H   0  0  0
   -7.6423   -1.4559    0.8476 H   0  0  0
   -7.1974   -3.1569    1.1251 H   0  0  0
   -7.6777   -0.9990    3.2335 H   0  0  0
   -8.6144   -2.4951    2.9781 H   0  0  0
   -4.5475   -4.9406    7.0899 H   0  0  0
   -4.9183   -5.7513   10.0532 H   0  0  0
   -4.8824   -6.0831    8.3048 H   0  0  0
   -4.3669   -4.4944    8.9199 H   0  0  0
   -8.5008   -3.6088    8.0736 H   0  0  0
   -8.8191   -2.6278    5.8410 H   0  0  0
   -5.0240   -3.7657    1.4203 H   0  0  0
   -3.2986   -1.6056    2.7119 H   0  0  0
   -2.8609   -3.3289    2.5773 H   0  0  0
   -2.9773   -3.2008    0.1284 H   0  0  0
   -1.1345   -1.6859    1.7571 H   0  0  0
    2.6087   -3.2291   -0.7349 H   0  0  0
    1.4966   -4.5301   -0.2464 H   0  0  0
    1.2449   -3.6761   -1.7877 H   0  0  0
   -1.6614    3.1850   -2.3457 H   0  0  0
   -1.7693    6.1272   -1.3896 H   0  0  0
   -2.6089    4.6480   -1.9144 H   0  0  0
   -0.8504    4.6235   -1.6399 H   0  0  0
    0.4874    6.9542   -6.5623 H   0  0  0
    0.6858    6.0755   -5.0270 H   0  0  0
    0.9159    5.2266   -6.5745 H   0  0  0
   -0.6313    1.9359   -9.0298 H   0  0  0
    0.0140    1.4368   -7.4478 H   0  0  0
   -1.7442    1.4617   -7.7241 H   0  0  0
   -1.1014    1.1379   -6.0758 H   0  0  0
  1  2  1  0
  1 46  1  0
  1 47  1  0
  1 48  1  0
  2  3  1  0
  3 26  1  0
  3  4  1  0
  3 49  1  0
  4  5  1  0
  4 31  1  0
  4 50  1  0
  5  6  1  0
  5 51  1  0
  5 52  1  0
  6 25  1  0
  6  7  1  0
  6 53  1  0
  7  8  1  0
  7 54  1  0
  7 55  1  0
  8 23  1  0
  8  9  1  0
  9 10  1  0
  9 56  1  0
  9 57  1  0
 10 11  1  0
 10 58  1  0
 10 59  1  0
 11 22  4  0
 11 12  4  0
 12 13  4  0
 12 23  1  0
 13 14  1  0
 13 15  4  0
 15 22  4  0
 15 16  4  0
 16 17  4  0
 16 60  1  0
 17 18  1  0
 17 20  4  0
 18 19  1  0
 19 61  1  0
 19 62  1  0
 19 63  1  0
 20 21  4  0
 20 64  1  0
 21 22  4  0
 21 65  1  0
 23 24  1  0
 23 66  1  0
 24 25  1  0
 24 67  1  0
 24 68  1  0
 25 26  1  0
 25 69  1  0
 26 27  1  0
 26 70  1  0
 27 28  2  0
 27 29  1  0
 29 30  1  0
 30 71  1  0
 30 72  1  0
 30 73  1  0
 31 32  1  0
 32 33  2  0
 32 34  1  0
 34 45  4  0
 34 35  4  0
 35 36  4  0
 35 74  1  0
 36 37  1  0
 36 39  4  0
 37 38  1  0
 38 75  1  0
 38 76  1  0
 38 77  1  0
 39 40  1  0
 39 42  4  0
 40 41  1  0
 41 78  1  0
 41 79  1  0
 41 80  1  0
 42 43  1  0
 42 45  4  0
 43 44  1  0
 44 81  1  0
 44 82  1  0
 44 83  1  0
 45 84  1  0
M  END
$$$$
