CCc1cc(ccn1)C(=S)N
CHcorina  02130121013D 1   1.00000     0.00000     0
CORINA evaluation copy  2.4  150  11.12.1900 (2001-3)
 21 21  0  0  0  0              1 V2000
   -0.0187    1.5258    0.0104 C   0  0  0
    0.0021   -0.0041    0.0020 C   0  0  0
   -1.4117   -0.5257    0.0127 C   0  0  0
   -2.0602   -0.7603   -1.1839 C   0  0  0
   -3.3726   -1.2446   -1.1603 C   0  0  0
   -3.9706   -1.4700    0.0847 C   0  0  0
   -3.2480   -1.2078    1.2315 C   0  0  0
   -2.0107   -0.7569    1.1641 N   0  0  0
   -4.1073   -1.5103   -2.4157 C   0  0  0
   -3.3528   -1.2255   -3.9258 S   0  0  0
   -5.3710   -1.9766   -2.3711 N   0  0  0
    1.0039    1.9031    0.0027 H   0  0  0
   -0.5459    1.8868   -0.8726 H   0  0  0
   -0.5289    1.8773    0.9072 H   0  0  0
    0.5123   -0.3556   -0.8948 H   0  0  0
    0.5293   -0.3651    0.8851 H   0  0  0
   -1.5619   -0.5725   -2.1235 H   0  0  0
   -4.9822   -1.8430    0.1475 H   0  0  0
   -3.7008   -1.3786    2.1970 H   0  0  0
   -5.8530   -2.1509   -3.1946 H   0  0  0
   -5.7985   -2.1380   -1.5155 H   0  0  0
  1  2  1  0
  1 12  1  0
  1 13  1  0
  1 14  1  0
  2  3  1  0
  2 15  1  0
  2 16  1  0
  3  8  4  0
  3  4  4  0
  4  5  4  0
  4 17  1  0
  5  6  4  0
  5  9  1  0
  6  7  4  0
  6 18  1  0
  7  8  4  0
  7 19  1  0
  9 10  2  0
  9 11  1  0
 11 20  1  0
 11 21  1  0
M  END
$$$$
