NS(=O)(=O)c1cc(C(=O)O)c(NCc2ccco2)cc1Cl
CHcorina  02130121013D 1   1.00000     0.00000     0
CORINA evaluation copy  2.4  150  11.12.1900 (2001-3)
 32 33  0  0  0  0              1 V2000
   -0.1599    1.7749    0.4170 N   0  0  0
   -0.0583    0.1238    0.3396 S   0  0  0
    0.5980   -0.1655   -0.8871 O   0  0  0
    0.3779   -0.2969    1.6249 O   0  0  0
   -1.6978   -0.4971    0.1635 C   0  0  0
   -2.0309   -1.2476   -0.9420 C   0  0  0
   -3.3309   -1.7418   -1.0838 C   0  0  0
   -3.6933   -2.5452   -2.2632 C   0  0  0
   -4.7917   -3.0606   -2.3332 O   0  0  0
   -2.8069   -2.7091   -3.2651 O   0  0  0
   -4.2893   -1.4675   -0.0940 C   0  0  0
   -5.5838   -1.9528   -0.2225 N   0  0  0
   -6.6111   -1.5650    0.7472 C   0  0  0
   -7.9177   -2.2226    0.3849 C   0  0  0
   -8.3415   -3.4229    0.8197 C   0  0  0
   -9.6096   -3.6457    0.2356 C   0  0  0
   -9.8849   -2.5683   -0.5212 C   0  0  0
   -8.8592   -1.7070   -0.4224 O   0  0  0
   -3.9351   -0.7090    1.0138 C   0  0  0
   -2.6449   -0.2322    1.1421 C   0  0  0
   -2.2093    0.7150    2.5302 Cl  0  0  0
    0.6456    2.3063    0.5154 H   0  0  0
   -1.0245    2.2108    0.3600 H   0  0  0
   -1.2886   -1.4539   -1.6989 H   0  0  0
   -3.0449   -3.2368   -4.0397 H   0  0  0
   -5.8080   -2.5486   -0.9544 H   0  0  0
   -6.3082   -1.8839    1.7446 H   0  0  0
   -6.7333   -0.4820    0.7336 H   0  0  0
   -7.8141   -4.0888    1.4865 H   0  0  0
  -10.2368   -4.5145    0.3708 H   0  0  0
  -10.7806   -2.4193   -1.1059 H   0  0  0
   -4.6678   -0.4951    1.7779 H   0  0  0
  1  2  1  0
  1 22  1  0
  1 23  1  0
  2  3  2  0
  2  4  2  0
  2  5  1  0
  5 20  4  0
  5  6  4  0
  6  7  4  0
  6 24  1  0
  7  8  1  0
  7 11  4  0
  8  9  2  0
  8 10  1  0
 10 25  1  0
 11 12  1  0
 11 19  4  0
 12 13  1  0
 12 26  1  0
 13 14  1  0
 13 27  1  0
 13 28  1  0
 14 18  4  0
 14 15  4  0
 15 16  4  0
 15 29  1  0
 16 17  4  0
 16 30  1  0
 17 18  4  0
 17 31  1  0
 19 20  4  0
 19 32  1  0
 20 21  1  0
M  END
$$$$
