CCCN(CCC)S(=O)(=O)c1ccc(cc1)C(=O)O
CHcorina  02130121013D 1   1.00000     0.00000     0
CORINA evaluation copy  2.4  150  11.12.1900 (2001-3)
 38 38  0  0  0  0              1 V2000
   -0.0187    1.5258    0.0104 C   0  0  0
    0.0021   -0.0041    0.0020 C   0  0  0
   -1.4333   -0.5336    0.0129 C   0  0  0
   -1.4134   -1.9985    0.0048 N   0  0  0
   -1.3914   -2.7377    1.2694 C   0  0  0
   -2.6378   -2.3895    2.0856 C   0  0  0
   -2.6148   -3.1615    3.4063 C   0  0  0
   -1.4159   -2.8187   -1.4338 S   0  0  0
   -1.9211   -4.1137   -1.1390 O   0  0  0
   -1.9628   -1.9204   -2.3894 O   0  0  0
    0.2645   -3.0567   -1.9073 C   0  0  0
    0.9033   -2.1044   -2.6821 C   0  0  0
    2.2183   -2.2846   -3.0568 C   0  0  0
    2.9055   -3.4310   -2.6520 C   0  0  0
    2.2551   -4.3874   -1.8701 C   0  0  0
    0.9410   -4.1920   -1.4982 C   0  0  0
    4.3140   -3.6310   -3.0499 C   0  0  0
    4.8771   -2.7973   -3.7306 O   0  0  0
    4.9740   -4.7380   -2.6578 O   0  0  0
    1.0039    1.9031    0.0027 H   0  0  0
   -0.5459    1.8868   -0.8726 H   0  0  0
   -0.5289    1.8773    0.9072 H   0  0  0
    0.5123   -0.3556   -0.8948 H   0  0  0
    0.5293   -0.3651    0.8851 H   0  0  0
   -1.9435   -0.1821    0.9097 H   0  0  0
   -1.9605   -0.1726   -0.8702 H   0  0  0
   -1.3788   -3.8082    1.0644 H   0  0  0
   -0.4996   -2.4654    1.8340 H   0  0  0
   -2.6504   -1.3190    2.2906 H   0  0  0
   -3.5296   -2.6618    1.5210 H   0  0  0
   -3.5028   -2.9134    3.9877 H   0  0  0
   -2.6022   -4.2320    3.2012 H   0  0  0
   -1.7230   -2.8892    3.9708 H   0  0  0
    0.3706   -1.2183   -2.9944 H   0  0  0
    2.7154   -1.5410   -3.6620 H   0  0  0
    2.7806   -5.2764   -1.5540 H   0  0  0
    0.4368   -4.9309   -0.8930 H   0  0  0
    5.8960   -4.8689   -2.9182 H   0  0  0
  1  2  1  0
  1 20  1  0
  1 21  1  0
  1 22  1  0
  2  3  1  0
  2 23  1  0
  2 24  1  0
  3  4  1  0
  3 25  1  0
  3 26  1  0
  4  5  1  0
  4  8  1  0
  5  6  1  0
  5 27  1  0
  5 28  1  0
  6  7  1  0
  6 29  1  0
  6 30  1  0
  7 31  1  0
  7 32  1  0
  7 33  1  0
  8  9  2  0
  8 10  2  0
  8 11  1  0
 11 16  4  0
 11 12  4  0
 12 13  4  0
 12 34  1  0
 13 14  4  0
 13 35  1  0
 14 15  4  0
 14 17  1  0
 15 16  4  0
 15 36  1  0
 16 37  1  0
 17 18  2  0
 17 19  1  0
 19 38  1  0
M  END
$$$$
