CCc1nc(N)nc(N)c1c2ccc(Cl)cc2
CHcorina  02130121013D 1   1.00000     0.00000     0
CORINA evaluation copy  2.4  150  11.12.1900 (2001-3)
 30 31  0  0  0  0              1 V2000
   -0.0187    1.5258    0.0104 C   0  0  0
    0.0021   -0.0041    0.0020 C   0  0  0
   -1.4117   -0.5257    0.0127 C   0  0  0
   -2.0317   -0.7586    1.1586 N   0  0  0
   -3.2748   -1.2169    1.1825 C   0  0  0
   -3.8826   -1.4457    2.4040 N   0  0  0
   -3.9529   -1.4620    0.0710 N   0  0  0
   -3.4027   -1.2545   -1.1195 C   0  0  0
   -4.1142   -1.5116   -2.2777 N   0  0  0
   -2.0851   -0.7634   -1.1831 C   0  0  0
   -1.4277   -0.5153   -2.4889 C   0  0  0
   -0.2583   -1.1964   -2.8239 C   0  0  0
    0.3495   -0.9618   -4.0400 C   0  0  0
   -0.1998   -0.0514   -4.9270 C   0  0  0
    0.5699    0.2391   -6.4557 Cl  0  0  0
   -1.3607    0.6274   -4.5992 C   0  0  0
   -1.9799    0.3955   -3.3878 C   0  0  0
    1.0039    1.9031    0.0027 H   0  0  0
   -0.5459    1.8868   -0.8726 H   0  0  0
   -0.5289    1.8773    0.9072 H   0  0  0
    0.5123   -0.3556   -0.8948 H   0  0  0
    0.5293   -0.3651    0.8851 H   0  0  0
   -4.7922   -1.7810    2.4379 H   0  0  0
   -3.3992   -1.2707    3.2266 H   0  0  0
   -5.0231   -1.8464   -2.2244 H   0  0  0
   -3.7043   -1.3572   -3.1432 H   0  0  0
    0.1713   -1.9061   -2.1324 H   0  0  0
    1.2554   -1.4889   -4.3005 H   0  0  0
   -1.7850    1.3368   -5.2944 H   0  0  0
   -2.8858    0.9254   -3.1331 H   0  0  0
  1  2  1  0
  1 18  1  0
  1 19  1  0
  1 20  1  0
  2  3  1  0
  2 21  1  0
  2 22  1  0
  3 10  4  0
  3  4  4  0
  4  5  4  0
  5  6  1  0
  5  7  4  0
  6 23  1  0
  6 24  1  0
  7  8  4  0
  8  9  1  0
  8 10  4  0
  9 25  1  0
  9 26  1  0
 10 11  1  0
 11 17  4  0
 11 12  4  0
 12 13  4  0
 12 27  1  0
 13 14  4  0
 13 28  1  0
 14 15  1  0
 14 16  4  0
 16 17  4  0
 16 29  1  0
 17 30  1  0
M  END
$$$$
