Cn1c(=O)n(C)c2[nH]cnc2c1=O
CHcorina  03230118583D 1   1.00000     0.00000     0
CORINA evaluation copy  2.4  150  11.12.1900 (2001-3)
 21 22  0  0  0  0              1 V2000
   -0.0178    1.4608    0.0101 C   0  0  0
    0.0021   -0.0041    0.0020 N   0  0  0
    0.0055   -0.6600   -1.1704 C   0  0  0
   -0.0085   -0.0171   -2.2024 O   0  0  0
    0.0243   -2.0026   -1.2426 N   0  0  0
    0.0279   -2.6568   -2.5534 C   0  0  0
    0.0405   -2.7694   -0.1003 C   0  0  0
    0.0600   -4.1054    0.1486 N   0  0  0
    0.0673   -4.8120   -0.5160 H   0  0  0
    0.0683   -4.2724    1.5029 C   0  0  0
    0.0549   -3.1083    2.0852 N   0  0  0
    0.0374   -2.1396    1.1386 C   0  0  0
    0.0223   -0.6762    1.1733 C   0  0  0
    0.0255   -0.0787    2.2340 O   0  0  0
    1.0048    1.8381    0.0023 H   0  0  0
   -0.5450    1.8219   -0.8730 H   0  0  0
   -0.5280    1.8123    0.9069 H   0  0  0
    1.0564   -2.8044   -2.8829 H   0  0  0
   -0.4719   -3.6226   -2.4789 H   0  0  0
   -0.4980   -2.0301   -3.2737 H   0  0  0
    0.0833   -5.2242    2.0131 H   0  0  0
  1  2  1  0
  1 15  1  0
  1 16  1  0
  1 17  1  0
  2 13  4  0
  2  3  4  0
  3  4  2  0
  3  5  4  0
  5  6  1  0
  5  7  4  0
  6 18  1  0
  6 19  1  0
  6 20  1  0
  7 12  4  0
  7  8  4  0
  8  9  1  0
  8 10  4  0
 10 11  4  0
 10 21  1  0
 11 12  4  0
 12 13  4  0
 13 14  2  0
M  END
$$$$
