IC(I)I
CHcorina  02130121023D 1   1.00000     0.00000     0
CORINA evaluation copy  2.4  150  11.12.1900 (2001-3)
  5  4  0  0  0  0              1 V2000
    0.0021   -0.0041    0.0020 I   0  0  0
   -0.0272    2.1577    0.0139 C   0  0  0
    2.0011    2.9060   -0.0014 I   0  0  0
   -1.0729    2.8739   -1.7376 I   0  0  0
   -0.5374    2.5092    0.9107 H   0  0  0
  1  2  1  0
  2  3  1  0
  2  4  1  0
  2  5  1  0
M  END
$$$$
