CC(=O)c1ccc(cc1)S(=O)(=O)NC(=O)NC2CCCCC2
CHcorina  02130121023D 1   1.00000     0.00000     0
CORINA evaluation copy  2.4  150  11.12.1900 (2001-3)
 42 43  0  0  0  0              1 V2000
   -0.0184    1.5028    0.0103 C   0  0  0
    0.0021   -0.0041    0.0020 C   0  0  0
    1.0602   -0.5960   -0.0113 O   0  0  0
   -1.2623   -0.7572    0.0100 C   0  0  0
   -2.4850   -0.0780    0.0195 C   0  0  0
   -3.6652   -0.7907    0.0265 C   0  0  0
   -3.6421   -2.1747    0.0242 C   0  0  0
   -2.4365   -2.8539    0.0153 C   0  0  0
   -1.2475   -2.1554    0.0024 C   0  0  0
   -5.1559   -3.0764    0.0332 S   0  0  0
   -4.8380   -4.3595    0.5546 O   0  0  0
   -6.1301   -2.1901    0.5668 O   0  0  0
   -5.5921   -3.3273   -1.5445 N   0  0  0
   -4.7752   -4.0125   -2.3687 C   0  0  0
   -3.7178   -4.4466   -1.9540 O   0  0  0
   -5.1302   -4.2167   -3.6528 N   0  0  0
   -4.2421   -4.9616   -4.5487 C   0  0  0
   -4.5855   -6.4512   -4.4846 C   0  0  0
   -3.6580   -7.2291   -5.4202 C   0  0  0
   -3.8398   -6.7251   -6.8534 C   0  0  0
   -3.4964   -5.2355   -6.9175 C   0  0  0
   -4.4239   -4.4576   -5.9818 C   0  0  0
    1.0042    1.8801    0.0026 H   0  0  0
   -0.5455    1.8639   -0.8728 H   0  0  0
   -0.5286    1.8543    0.9071 H   0  0  0
   -2.5046    1.0018    0.0217 H   0  0  0
   -4.6101   -0.2677    0.0342 H   0  0  0
   -2.4268   -3.9339    0.0143 H   0  0  0
   -0.3073   -2.6869   -0.0045 H   0  0  0
   -6.4357   -2.9810   -1.8754 H   0  0  0
   -5.9737   -3.8705   -3.9837 H   0  0  0
   -3.2072   -4.8137   -4.2400 H   0  0  0
   -4.4561   -6.8103   -3.4636 H   0  0  0
   -5.6204   -6.5991   -4.7933 H   0  0  0
   -2.6231   -7.0812   -5.1116 H   0  0  0
   -3.9026   -8.2903   -5.3745 H   0  0  0
   -3.1790   -7.2793   -7.5200 H   0  0  0
   -4.8746   -6.8730   -7.1620 H   0  0  0
   -2.4615   -5.0876   -6.6088 H   0  0  0
   -3.6258   -4.8764   -7.9385 H   0  0  0
   -5.4587   -4.6056   -6.2905 H   0  0  0
   -4.1793   -3.3964   -6.0275 H   0  0  0
  1  2  1  0
  1 23  1  0
  1 24  1  0
  1 25  1  0
  2  3  2  0
  2  4  1  0
  4  9  4  0
  4  5  4  0
  5  6  4  0
  5 26  1  0
  6  7  4  0
  6 27  1  0
  7  8  4  0
  7 10  1  0
  8  9  4  0
  8 28  1  0
  9 29  1  0
 10 11  2  0
 10 12  2  0
 10 13  1  0
 13 14  1  0
 13 30  1  0
 14 15  2  0
 14 16  1  0
 16 17  1  0
 16 31  1  0
 17 22  1  0
 17 18  1  0
 17 32  1  0
 18 19  1  0
 18 33  1  0
 18 34  1  0
 19 20  1  0
 19 35  1  0
 19 36  1  0
 20 21  1  0
 20 37  1  0
 20 38  1  0
 21 22  1  0
 21 39  1  0
 21 40  1  0
 22 41  1  0
 22 42  1  0
M  END
$$$$
CC(=O)c1ccc(cc1)S(=O)(=O)NC(=O)NC2CCCCC2
CHcorina  02130121023D 1   1.00000     2.00000     0
CORINA evaluation copy  2.4  150  11.12.1900 (2001-3)
 42 43  0  0  0  0              1 V2000
   -0.0184    1.5028    0.0103 C   0  0  0
    0.0021   -0.0041    0.0020 C   0  0  0
    1.0602   -0.5960   -0.0113 O   0  0  0
   -1.2623   -0.7572    0.0100 C   0  0  0
   -2.4850   -0.0780    0.0195 C   0  0  0
   -3.6652   -0.7907    0.0265 C   0  0  0
   -3.6421   -2.1747    0.0242 C   0  0  0
   -2.4365   -2.8539    0.0153 C   0  0  0
   -1.2475   -2.1554    0.0024 C   0  0  0
   -5.1559   -3.0764    0.0332 S   0  0  0
   -4.8380   -4.3595    0.5546 O   0  0  0
   -6.1301   -2.1901    0.5668 O   0  0  0
   -5.5921   -3.3273   -1.5445 N   0  0  0
   -4.7752   -4.0125   -2.3687 C   0  0  0
   -3.7178   -4.4466   -1.9540 O   0  0  0
   -5.1302   -4.2167   -3.6528 N   0  0  0
   -4.2421   -4.9616   -4.5487 C   0  0  0
   -4.5855   -6.4512   -4.4846 C   0  0  0
   -6.0381   -6.6588   -4.9178 C   0  0  0
   -6.2199   -6.1548   -6.3509 C   0  0  0
   -5.8765   -4.6652   -6.4151 C   0  0  0
   -4.4239   -4.4576   -5.9818 C   0  0  0
    1.0042    1.8801    0.0026 H   0  0  0
   -0.5455    1.8639   -0.8728 H   0  0  0
   -0.5286    1.8543    0.9071 H   0  0  0
   -2.5046    1.0018    0.0217 H   0  0  0
   -4.6101   -0.2677    0.0342 H   0  0  0
   -2.4268   -3.9339    0.0143 H   0  0  0
   -0.3073   -2.6869   -0.0045 H   0  0  0
   -6.4357   -2.9810   -1.8754 H   0  0  0
   -5.9737   -3.8705   -3.9837 H   0  0  0
   -3.2072   -4.8137   -4.2400 H   0  0  0
   -3.9248   -7.0054   -5.1512 H   0  0  0
   -4.4560   -6.8103   -3.4636 H   0  0  0
   -6.2828   -7.7200   -4.8721 H   0  0  0
   -6.6988   -6.1045   -4.2512 H   0  0  0
   -5.5591   -6.7090   -7.0175 H   0  0  0
   -7.2547   -6.3027   -6.6596 H   0  0  0
   -6.0060   -4.3061   -7.4360 H   0  0  0
   -6.5372   -4.1110   -5.7484 H   0  0  0
   -4.1792   -3.3964   -6.0276 H   0  0  0
   -3.7632   -5.0119   -6.6485 H   0  0  0
  1  2  1  0
  1 23  1  0
  1 24  1  0
  1 25  1  0
  2  3  2  0
  2  4  1  0
  4  9  4  0
  4  5  4  0
  5  6  4  0
  5 26  1  0
  6  7  4  0
  6 27  1  0
  7  8  4  0
  7 10  1  0
  8  9  4  0
  8 28  1  0
  9 29  1  0
 10 11  2  0
 10 12  2  0
 10 13  1  0
 13 14  1  0
 13 30  1  0
 14 15  2  0
 14 16  1  0
 16 17  1  0
 16 31  1  0
 17 22  1  0
 17 18  1  0
 17 32  1  0
 18 19  1  0
 18 33  1  0
 18 34  1  0
 19 20  1  0
 19 35  1  0
 19 36  1  0
 20 21  1  0
 20 37  1  0
 20 38  1  0
 21 22  1  0
 21 39  1  0
 21 40  1  0
 22 41  1  0
 22 42  1  0
M  END
$$$$
CC(=O)c1ccc(cc1)S(=O)(=O)NC(=O)NC2CCCCC2
CHcorina  02130121023D 1   1.00000    23.00000     0
CORINA evaluation copy  2.4  150  11.12.1900 (2001-3)
 42 43  0  0  0  0              1 V2000
   -0.0184    1.5028    0.0103 C   0  0  0
    0.0021   -0.0041    0.0020 C   0  0  0
    1.0602   -0.5960   -0.0113 O   0  0  0
   -1.2623   -0.7572    0.0100 C   0  0  0
   -2.4850   -0.0780    0.0195 C   0  0  0
   -3.6652   -0.7907    0.0265 C   0  0  0
   -3.6421   -2.1747    0.0242 C   0  0  0
   -2.4365   -2.8539    0.0153 C   0  0  0
   -1.2475   -2.1554    0.0024 C   0  0  0
   -5.1559   -3.0764    0.0332 S   0  0  0
   -4.8380   -4.3595    0.5546 O   0  0  0
   -6.1301   -2.1901    0.5668 O   0  0  0
   -5.5921   -3.3273   -1.5445 N   0  0  0
   -4.7752   -4.0125   -2.3687 C   0  0  0
   -3.7178   -4.4466   -1.9540 O   0  0  0
   -5.1302   -4.2167   -3.6528 N   0  0  0
   -4.2421   -4.9616   -4.5487 C   0  0  0
   -4.5851   -6.4511   -4.4840 C   0  0  0
   -4.1968   -7.1223   -5.8028 C   0  0  0
   -2.9542   -6.4392   -6.3769 C   0  0  0
   -3.3234   -5.0392   -6.8711 C   0  0  0
   -4.4239   -4.4576   -5.9817 C   0  0  0
    1.0042    1.8801    0.0026 H   0  0  0
   -0.5455    1.8639   -0.8728 H   0  0  0
   -0.5286    1.8543    0.9071 H   0  0  0
   -2.5046    1.0018    0.0217 H   0  0  0
   -4.6101   -0.2677    0.0342 H   0  0  0
   -2.4268   -3.9339    0.0143 H   0  0  0
   -0.3073   -2.6869   -0.0045 H   0  0  0
   -6.4357   -2.9810   -1.8754 H   0  0  0
   -5.9737   -3.8705   -3.9837 H   0  0  0
   -3.2073   -4.8135   -4.2401 H   0  0  0
   -4.0358   -6.9151   -3.6647 H   0  0  0
   -5.6556   -6.5705   -4.3170 H   0  0  0
   -3.9825   -8.1761   -5.6248 H   0  0  0
   -5.0202   -7.0338   -6.5116 H   0  0  0
   -2.1916   -6.3615   -5.6019 H   0  0  0
   -2.5677   -7.0279   -7.2089 H   0  0  0
   -2.4446   -4.3957   -6.8293 H   0  0  0
   -3.6810   -5.0994   -7.8990 H   0  0  0
   -5.3980   -4.7720   -6.3565 H   0  0  0
   -4.3639   -3.3693   -5.9943 H   0  0  0
  1  2  1  0
  1 23  1  0
  1 24  1  0
  1 25  1  0
  2  3  2  0
  2  4  1  0
  4  9  4  0
  4  5  4  0
  5  6  4  0
  5 26  1  0
  6  7  4  0
  6 27  1  0
  7  8  4  0
  7 10  1  0
  8  9  4  0
  8 28  1  0
  9 29  1  0
 10 11  2  0
 10 12  2  0
 10 13  1  0
 13 14  1  0
 13 30  1  0
 14 15  2  0
 14 16  1  0
 16 17  1  0
 16 31  1  0
 17 22  1  0
 17 18  1  0
 17 32  1  0
 18 19  1  0
 18 33  1  0
 18 34  1  0
 19 20  1  0
 19 35  1  0
 19 36  1  0
 20 21  1  0
 20 37  1  0
 20 38  1  0
 21 22  1  0
 21 39  1  0
 21 40  1  0
 22 41  1  0
 22 42  1  0
M  END
$$$$
