COc1cc(CC=C)ccc1O
CHcorina  02130121023D 1   1.00000     0.00000     0
CORINA evaluation copy  2.4  150  11.12.1900 (2001-3)
 24 24  0  0  0  0              1 V2000
   -0.0173    1.4248    0.0099 C   0  0  0
    0.0021   -0.0041    0.0020 O   0  0  0
   -1.2943   -0.4148    0.0122 C   0  0  0
   -2.3184    0.5186    0.0212 C   0  0  0
   -3.6357    0.0994    0.0310 C   0  0  0
   -4.7481    1.1159    0.0408 C   0  0  0
   -5.1300    1.4563   -1.3767 C   0  0  0
   -6.3521    1.2395   -1.7958 C   0  0  0
   -3.9347   -1.2504    0.0315 C   0  0  0
   -2.9178   -2.1869    0.0230 C   0  0  0
   -1.5954   -1.7734    0.0078 C   0  0  0
   -0.5938   -2.6933   -0.0011 O   0  0  0
    1.0053    1.8021    0.0021 H   0  0  0
   -0.5445    1.7859   -0.8732 H   0  0  0
   -0.5275    1.7763    0.9067 H   0  0  0
   -2.0874    1.5736    0.0209 H   0  0  0
   -5.6126    0.7035    0.5610 H   0  0  0
   -4.4120    2.0175    0.5530 H   0  0  0
   -4.3962    1.8790   -2.0470 H   0  0  0
   -6.6258    1.4834   -2.8117 H   0  0  0
   -7.0859    0.8168   -1.1255 H   0  0  0
   -4.9651   -1.5740    0.0388 H   0  0  0
   -3.1542   -3.2407    0.0238 H   0  0  0
   -0.3980   -2.8844   -0.9285 H   0  0  0
  1  2  1  0
  1 13  1  0
  1 14  1  0
  1 15  1  0
  2  3  1  0
  3 11  4  0
  3  4  4  0
  4  5  4  0
  4 16  1  0
  5  6  1  0
  5  9  4  0
  6  7  1  0
  6 17  1  0
  6 18  1  0
  7  8  2  0
  7 19  1  0
  8 20  1  0
  8 21  1  0
  9 10  4  0
  9 22  1  0
 10 11  4  0
 10 23  1  0
 11 12  1  0
 12 24  1  0
M  END
$$$$
