NC(=O)c1cnccn1
CHcorina  02130121023D 1   1.00000     0.00000     0
CORINA evaluation copy  2.4  150  11.12.1900 (2001-3)
 14 14  0  0  0  0              1 V2000
   -0.0162    1.3436    0.0094 N   0  0  0
    0.0021   -0.0041    0.0020 C   0  0  0
    1.0625   -0.5973   -0.0113 O   0  0  0
   -1.2707   -0.7622    0.0101 C   0  0  0
   -1.2541   -2.1565    0.0083 C   0  0  0
   -2.3915   -2.8280    0.0160 N   0  0  0
   -3.5430   -2.1799    0.0254 C   0  0  0
   -3.5629   -0.7927    0.0267 C   0  0  0
   -2.4325   -0.1149    0.0247 N   0  0  0
    0.8172    1.8399    0.0041 H   0  0  0
   -0.8627    1.8171    0.0160 H   0  0  0
   -0.3131   -2.6864    0.0002 H   0  0  0
   -4.4713   -2.7317    0.0316 H   0  0  0
   -4.5064   -0.2673    0.0341 H   0  0  0
  1  2  1  0
  1 10  1  0
  1 11  1  0
  2  3  2  0
  2  4  1  0
  4  9  4  0
  4  5  4  0
  5  6  4  0
  5 12  1  0
  6  7  4  0
  7  8  4  0
  7 13  1  0
  8  9  4  0
  8 14  1  0
M  END
$$$$
